/*--------------------------------*- C++ -*----------------------------------*\
| =========                 |                                                 |
| \\      /  F ield         | OpenFOAM: The Open Source CFD Toolbox           |
|  \\    /   O peration     | Version:  2.3.x                                 |
|   \\  /    A nd           | Web:      www.OpenFOAM.org                      |
|    \\/     M anipulation  |                                                 |
\*---------------------------------------------------------------------------*/
FoamFile
{
    version     2.0;
    format      ascii;
    class       dictionary;
    location    "system";
    object      geometryDict;
}
// * * * * * * * * * * * * * * * * * * * * * * * * * * * * * * * * * * * * * //

boundingBox     2 ( ( -0.002 -0.02 -0.02 ) ( 0.002 0.02 0.02 ) );

solids
{
    plate
    {
        elementLength   0.001;
        conductivity    210;
        emissivity      0.8;
        power           0.5;
        contacts
        (
            {
                to              box;
                
            }
        );
    }
}

blanks
{
}

baffles
{
}

rotations
{
}

refinements
{
}

// ************************************************************************* //
