/*--------------------------------*- C++ -*----------------------------------*\
| =========                 |                                                 |
| \\      /  F ield         | OpenFOAM: The Open Source CFD Toolbox           |
|  \\    /   O peration     | Version:  2.3.0                                 |
|   \\  /    A nd           | Web:      www.OpenFOAM.org                      |
|    \\/     M anipulation  |                                                 |
\*---------------------------------------------------------------------------*/
FoamFile
{
    version     2.0;
    format      ascii;
    class       dictionary;
    object      topoSetDict;
}
// * * * * * * * * * * * * * * * * * * * * * * * * * * * * * * * * * * * * * //

// All undefined regions are added to this cellZone.
defaultCellZone     FLUID;

// Merge regions into a single cellZone or create separate cellZones.
// Separate cellZones are named by defaultCellZone plus numerical suffix.
mergeRegions        true;

// Put regions with a small number of cells into a separate cellZone.
cavitiesCellZone    cavities;

// Invert cavitiesCellZone for usage with subSetMesh.
invertCavities      true;

// Specify size threshold by number of cells or
// relative in relation to overall mesh size.
relativeSize        yes;
minRegionSize       0.02;

// Identify regions by insidePoints and add to individual cellZones.
cellZones
(
//    {
//        name            topAir;
//        insidePoints    ( ( -0.006 -0.006 -0.006 ) );
//    }
);

// ************************************************************************* //

