/*--------------------------------*- C++ -*----------------------------------*\
| =========                 |                                                 |
| \\      /  F ield         | OpenFOAM: The Open Source CFD Toolbox           |
|  \\    /   O peration     | Version:  2.3.0                                 |
|   \\  /    A nd           | Web:      www.OpenFOAM.org                      |
|    \\/     M anipulation  |                                                 |
\*---------------------------------------------------------------------------*/
FoamFile
{
    version     2.0;
    format      ascii;
    class       dictionary;
    object      blockMeshDict;
}
// * * * * * * * * * * * * * * * * * * * * * * * * * * * * * * * * * * * * * //

#include "./system/includeDict";

convertToMeters 1;

vertices $config.blockMesh.vertices;

blocks $config.blockMesh.blocks;

edges
(
);

boundary
(
    minX
    {
        type patch;
        faces
        (
            (   0  16  20   4 )
            (  16  32  36  20 )
            (  32  48  52  36 )
            (   4  20  24   8 )
            (  20  36  40  24 )
            (  36  52  56  40 )
            (   8  24  28  12 )
            (  24  40  44  28 )
            (  40  56  60  44 )
        );
    }
    maxX
    {
        type patch;
        faces
        (
            (   7  23  19   3 )
            (  23  39  35  19 )
            (  39  55  51  35 )
            (  11  27  23   7 )
            (  27  43  39  23 )
            (  43  59  55  39 )
            (  15  31  27  11 )
            (  31  47  43  27 )
            (  47  63  59  43 )
        );
    }
    minY
    {
        type patch;
        faces
        (
            (   0   1  17  16 )
            (   1   2  18  17 )
            (   2   3  19  18 )
            (  16  17  33  32 )
            (  17  18  34  33 )
            (  18  19  35  34 )
            (  32  33  49  48 )
            (  33  34  50  49 )
            (  34  35  51  50 )
        );
    }
    maxY
    {
        type patch;
        faces
        (
            (  28  29  13  12 )
            (  29  30  14  13 )
            (  30  31  15  14 )
            (  44  45  29  28 )
            (  45  46  30  29 )
            (  46  47  31  30 )
            (  60  61  45  44 )
            (  61  62  46  45 )
            (  62  63  47  46 )
        );
    }
    minZ
    {
        type patch;
        faces
        (
            (   0   4   5   1 )
            (   4   8   9   5 )
            (   8  12  13   9 )
            (   1   5   6   2 )
            (   5   9  10   6 )
            (   9  13  14  10 )
            (   2   6   7   3 )
            (   6  10  11   7 )
            (  10  14  15  11 )
        );
    }
    maxZ
    {
        type patch;
        faces
        (
            (  49  53  52  48 )
            (  53  57  56  52 )
            (  57  61  60  56 )
            (  50  54  53  49 )
            (  54  58  57  53 )
            (  58  62  61  57 )
            (  51  55  54  50 )
            (  55  59  58  54 )
            (  59  63  62  58 )
        );
    }
);

mergePatchPairs
(
);

#remove config;

// ************************************************************************* //
