/*--------------------------------*- C++ -*----------------------------------*\
| =========                 |                                                 |
| \\      /  F ield         | OpenFOAM: The Open Source CFD Toolbox           |
|  \\    /   O peration     | Version:  2.3.0                                 |
|   \\  /    A nd           | Web:      www.OpenFOAM.org                      |
|    \\/     M anipulation  |                                                 |
\*---------------------------------------------------------------------------*/
FoamFile
{
    version     2.0;
    format      ascii;
    class       dictionary;
    object      modifyRegionsDict;
}
// * * * * * * * * * * * * * * * * * * * * * * * * * * * * * * * * * * * * * //

#include "./system/includeDict"

// Put regions with a small number of cells into a separate cellZone.
cavitiesCellZone    cavities;

// Specify size threshold by number of cells or
// relative in relation to overall mesh size.
relativeSize        yes;
minRegionSize       0.02;

// Identify regions by insidePoints and add to individual cellZones.
cellZones
{
    FLUID
    {
        action          keep;
        insidePoints    ( );
    }
    fixedConvection
    {
        action          invert;
        insidePoints    ( (2 2 2) );
    }
    temp
    {
        action          remove;
        insidePoints    ( (0 0 0) (1 1 1) );
    }
}

#remove config;

// ************************************************************************* //

