/*--------------------------------*- C++ -*----------------------------------*\
| =========                 |                                                 |
| \\      /  F ield         | OpenFOAM: The Open Source CFD Toolbox           |
|  \\    /   O peration     | Version:  2.3.0                                 |
|   \\  /    A nd           | Web:      www.OpenFOAM.org                      |
|    \\/     M anipulation  |                                                 |
\*---------------------------------------------------------------------------*/

FoamFile
{
    version     2.0;
    format      ascii;
    class       dictionary;
    object      radiationProperties;
}
// * * * * * * * * * * * * * * * * * * * * * * * * * * * * * * * * * * * * * //

#include        "./system/includeDict"

radiation       on;

radiationModel  opaqueSolid;

absorptionEmissionModel constantAbsorptionEmission;

constantAbsorptionEmissionCoeffs
{
    absorptivity    absorptivity [ 0 -1 0 0 0 0 0 ] 0.0;  //opaque
    emissivity      emissivity [ 0 -1 0 0 0 0 0 ] $:config.solids.SOLID.emissivity;
    E               E [ 1 -1 -3 0 0 0 0 ] 0;
}

scatterModel    none;

sootModel       none;

#remove config;

// ************************************************************************* //
