/*--------------------------------*- C++ -*----------------------------------*\
| =========                 |                                                 |
| \\      /  F ield         | OpenFOAM: The Open Source CFD Toolbox           |
|  \\    /   O peration     | Version:  2.3.0                                 |
|   \\  /    A nd           | Web:      www.OpenFOAM.org                      |
|    \\/     M anipulation  |                                                 |
\*---------------------------------------------------------------------------*/
FoamFile
{
    version     2.0;
    format      ascii;
    class       dictionary;
    location    "constant";
    object      radiationProperties;
}
// * * * * * * * * * * * * * * * * * * * * * * * * * * * * * * * * * * * * * //

#include        "./system/includeDict"

radiationModel  $:config.radiation.model;

fvDOMCoeffs
{
    nPhi            $:config.radiation.nPhi;
    nTheta          $:config.radiation.nTheta;
    convergence     0.001;
    maxIter         5;
} 

solverFreq      $:config.radiation.frequency;

absorptionEmissionModel none;

scatterModel    none;

sootModel       none;

#remove config;

// ************************************************************************* //
